tests/results/case9_prefix_suffix/mpc.bus_test.csv
bus,BUS_I,BUS_TYPE,PD,QD,GS,BS,BUS_AREA,VM,VA,BASE_KV,ZONE,VMAX,VMIN
1,1.0,3.0,0.0,0.0,0.0,0.0,1.0,1.0,0.0,345.0,1.0,1.1,0.9
2,2.0,2.0,0.0,0.0,0.0,0.0,1.0,1.0,0.0,345.0,1.0,1.1,0.9
3,3.0,2.0,0.0,0.0,0.0,0.0,1.0,1.0,0.0,345.0,1.0,1.1,0.9
4,4.0,1.0,0.0,0.0,0.0,0.0,1.0,1.0,0.0,345.0,1.0,1.1,0.9
5,5.0,1.0,90.0,30.0,0.0,0.0,1.0,1.0,0.0,345.0,1.0,1.1,0.9
6,6.0,1.0,0.0,0.0,0.0,0.0,1.0,1.0,0.0,345.0,1.0,1.1,0.9
7,7.0,1.0,100.0,35.0,0.0,0.0,1.0,1.0,0.0,345.0,1.0,1.1,0.9
8,8.0,1.0,0.0,0.0,0.0,0.0,1.0,1.0,0.0,345.0,1.0,1.1,0.9
9,9.0,1.0,125.0,50.0,0.0,0.0,1.0,1.0,0.0,345.0,1.0,1.1,0.9
